# This file was generated by ISODISTORT, version 6.3.4
# Harold T. Stokes, Branton J. Campbell, David Tanner, Dorian M. Hatch
# Brigham Young University, Provo, Utah, USA
#
# Space Group: 167 R-3c       D3d-6
# Default space-group preferences: monoclinic axes a(b)c, monoclinic cell choice 1, orthorhombic axes abc, origin choice 2, hexagonal axes, SSG standard setting
# Lattice parameters: a=9.62020, b=9.62020, c=11.08130, alpha=90.00000, beta=90.00000, gamma=120.00000
# Ru1 6b (0,0,0)
# Sr1 18e (x,0,1/4), x=-0.35893
# O1 36f (x,y,z), x=-0.02190, y=-0.17430, z=0.10501
# Li1 6a (0,0,1/4)
# k point: GM, k7 (0,0,0)
# IR: mGM3+, mk7t5
# P2      (a,0.577a) 15.89 C2'/c', basis={(-2/3,-1/3,2/3),(0,-1,0),(2/3,1/3,1/3)}, origin=(-1/6,-1/3,1/6), s=1, i=6, k-active= (0,0,0)
# Note that this file uses an alternate (possibly nonstandard) setting of the subgroup chosen by the user:
#     basis={(1,0,0),(0,1,0),(0,0,1)}, origin=(0.00000,0.00000,0.00000) with respect to the parent space group
# Order parameter values:
#  R-3c[0,0,0]mGM3+(a,0.577a) 15.89 C2'/c' s=1 i=6
#     [Ru1:b:mag]Eg*_1(a): 3.00000
#     [Ru1:b:mag]Eg*_2(a): -1.73100
#  R-3c[0,0,0]mGM2+(a) 167.107 R-3c' s=1 i=2
#     [Ru1:b:mag]Ag(a): 1.00000
 
data_isodistort-output
 
_cell_length_a    9.62020
_cell_length_b    9.62020
_cell_length_c    11.08130
_cell_angle_alpha 90.00000
_cell_angle_beta  90.00000
_cell_angle_gamma 120.00000
 
_space_group_magn.number_BNS "15.89"
_space_group_magn.name_BNS "C2'/c'"
_space_group_magn.number_OG "15.5.96"
_space_group_magn.name_OG "C2'/c'"
_space_group_magn.point_group "2'/m'"
 
loop_
_space_group_magn_transforms.id
_space_group_magn_transforms.Pp_abc
_space_group_magn_transforms.source
1 -2/3a-1/3b+2/3c,-b,2/3a+1/3b+1/3c;1/2,1,-1/2 "BNS"
2 -2/3a-1/3b+2/3c,-b,2/3a+1/3b+1/3c;1/2,1,-1/2 "OG"
 
loop_
_space_group_symop_magn_operation.id
_space_group_symop_magn_operation.xyz
1 x,y,z,+1 
2 -x,-y,-z,+1 
3 -x+1/3,-x+y+2/3,-z+1/6,-1 
4 x+1/3,x-y+2/3,z+1/6,-1 
 
loop_
_space_group_symop_magn_centering.id
_space_group_symop_magn_centering.xyz
1 x,y,z,+1 
2 x+1/3,y+2/3,z+2/3,+1 
3 x+2/3,y+1/3,z+1/3,+1 
 
loop_
_atom_site_label
_atom_site_type_symbol
_atom_site_symmetry_multiplicity
_atom_site_Wyckoff_label
_atom_site_fract_x
_atom_site_fract_y
_atom_site_fract_z
_atom_site_occupancy
Ru1_1 Ru  24 c 0.33333 0.66667  0.66667 1.00000
Sr1_1 Sr  48 f 0.64107 0.00000  0.25000 1.00000
Sr1_2 Sr  24 e 0.66667 -0.02560 0.58333 1.00000
O1_1  O   48 f 0.31143 0.49237  0.77168 1.00000
O1_2  O   48 f 0.50763 0.81907  0.77168 1.00000
O1_3  O   48 f 0.18093 0.68857  0.77168 1.00000
Li1_1 Li  24 e 0.66667 0.33333  0.58333 1.00000
 
loop_
_atom_site_moment.label
_atom_site_moment.crystalaxis_x
_atom_site_moment.crystalaxis_y
_atom_site_moment.crystalaxis_z
_atom_site_moment.symmform
Ru1_1 0.00074 2.44949 0.70711 mx,my,mz
 
_iso_displacivemode_number    0
 
 
_iso_magneticmode_number    3
 
loop_
_iso_magneticmode_ID
_iso_magneticmode_label
_iso_magneticmode_value
   1 R-3c[0,0,0]mGM3+(a,0.577a)[Ru1:b:mag]Eg*_1(a) 3.00000
   2 R-3c[0,0,0]mGM3+(a,0.577a)[Ru1:b:mag]Eg*_2(a) -1.73100
   3 R-3c[0,0,0]mGM2+(a)[Ru1:b:mag]Ag(a) 1.00000
 
loop_
_iso_magneticmodenorm_ID
_iso_magneticmodenorm_value
   1 0.06365
   2 0.07350
   3 0.06381
 
loop_
_iso_deltamoment_ID
_iso_deltamoment_label
_iso_deltamoment_value
   1 Ru1_1_dmy   2.44949
   2 Ru1_1_dmy   2.44949
   3 Ru1_1_dmy   2.44949
 
loop_
_iso_moment_label
_iso_moment_formula
Ru1_1_mx            "0 + 2*Ru1_1_dmy + 2*Ru1_1_dmy"
Ru1_1_my            "0 + Ru1_1_dmy + Ru1_1_dmy + Ru1_1_dmy"
Ru1_1_mz            "0 - 2*Ru1_1_dmy + Ru1_1_dmy"
Sr1_1_mx            "0"
Sr1_1_my            "0"
Sr1_1_mz            "0"
Sr1_2_mx            "0"
Sr1_2_my            "0"
Sr1_2_mz            "0"
O1_1_mx             "0"
O1_1_my             "0"
O1_1_mz             "0"
O1_2_mx             "0"
O1_2_my             "0"
O1_2_mz             "0"
O1_3_mx             "0"
O1_3_my             "0"
O1_3_mz             "0"
Li1_1_mx            "0"
Li1_1_my            "0"
Li1_1_mz            "0"
 
# matrix conversion: deltamoments(lattice units) = matrix.(modeamplitudes*modenormfactors)
# Note that deltamoment_i(crystalaxis units) = deltamoment_i(lattice units)*strained_cell_length_i
# Square matrix with _iso_magneticmode_number rows and columns
 
loop_
_iso_magneticmodematrix_row
_iso_magneticmodematrix_col
_iso_magneticmodematrix_value
    1    1   1.33333
    2    1   1.33333
    3    1   1.33333
 
_iso_rotationalmode_number    0
 
 
_iso_occupancymode_number    0
 
_iso_strainmode_number    0
 
# end of structure file
